8
 ethane | Equilibrium Geometry | B3LYP/6-31G(d) Potential=SCF
 H   21.039253   18.864464   19.999998
 C   20.001049   19.227961   19.999998
 H   19.481258   18.863037   20.898024
 H   19.481258   18.863037   19.101973
 C   20.001049   20.771303   19.999998
 H   18.962843   21.134800   19.999998
 H   20.511400   21.139528   19.101973
 H   20.511400   21.139528   20.898024
